data_Si
_symmetry_space_group_name_H-M   'F d -3 m'
_cell_length_a   5.43000
_cell_length_b   5.43000
_cell_length_c   5.43000
_cell_angle_alpha   90.00
_cell_angle_beta   90.00
_cell_angle_gamma   90.00
_symmetry_equiv_pos_as_xyz
  'x, y, z'
  'x, -y, -z'
  '-x, y, -z'
  '-x, -y, z'
  'z, x, y'
  'z, -x, -y'
  '-z, x, -y'
  '-z, -x, y'
  'y, z, x'
  'y, -z, -x'
  '-y, z, -x'
  '-y, -z, x'
  'y, x, -z'
  'y, -x, z'
  '-y, x, z'
  '-y, -x, -z'
  'x, z, -y'
  'x, -z, y'
  '-x, z, y'
  '-x, -z, -y'
  'z, y, -x'
  'z, -y, x'
  '-z, y, x'
  '-z, -y, -x'
loop_
  _atom_site_label
  _atom_site_type_symbol
  _atom_site_fract_x
  _atom_site_fract_y
  _atom_site_fract_z
  Si1 Si 0.00000 0.00000 0.00000
  Si2 Si 0.25000 0.25000 0.25000
